60
C            -0.0263530105        0.0859578457        3.5972510191
C            -0.9030993202       -1.0662261399        3.3152321282
C             1.3635182288       -0.3177185725        3.3142650993
C            -0.4607415731        1.4022651378        3.2845499356
C            -0.0543558196       -2.1825481795        2.8575935673
C             1.3462277001       -1.7202367017        2.8571115313
C            -2.1825890882       -0.8597005111        2.7321339733
C             2.2679957373        0.6084184015        2.7289626833
C             0.4777566948        2.3640690219        2.6770689054
C            -1.7883370571        1.6166543156        2.6789807700
C            -2.6337803170        0.5066270333        2.4078149820
C             1.8168166021        1.9744872986        2.4041371378
C            -0.5164191544       -3.0519467215        1.8328584959
C             2.2332572175       -2.1448156779        1.8309860449
C            -0.2694096750        3.1723159304        1.6954536648
C            -1.6699440382        2.7102800624        1.6968001940
C            -2.6612509408       -1.7628097761        1.6684008731
C             3.1882715079        0.1671579813        1.6643416252
C             3.1722589200       -1.1837860231        1.2240277085
C            -1.8440423803       -2.8387220896        1.2274733177
C            -3.3919597044        0.4478083703        1.1441974754
C             2.4592197956        2.3781143038        1.1397118075
C             0.4043552251       -3.4925141514        0.7684475001
C             1.7538912006       -3.0464854300        0.7674029703
C            -3.4095481062       -0.9547258442        0.6874367791
C             3.3067487229        1.2612848817        0.6827544769
C            -2.4010161453        2.6544589756        0.4799991916
C             0.3494355499        3.5635317431        0.4777332229
C            -3.2779805319        1.5024226946        0.1983262286
C             1.7392415966        3.1586060407        0.1945573567
C            -1.7436714015       -3.1469545336       -0.2115177185
C             3.2733992557       -1.4910154357       -0.2154350689
C            -0.3538568733       -3.5515788928       -0.4950445205
C             2.3963690328       -2.6427720045       -0.4973817926
C             3.4052148353        0.9655208947       -0.7036871593
C            -3.3111887055       -1.2508687581       -0.6991575893
C            -1.7589034560        3.0588359348       -0.7847444015
C            -0.4092376601        3.5050223502       -0.7857796137
C            -2.4635353585       -2.3673445784       -1.1569385491
C             3.3876321778       -0.4366218479       -1.1612473638
C            -3.1764675636        1.1950540922       -1.2404147307
C             1.8395204172        2.8504734922       -1.2439108204
C             2.6567579024        1.7744608880       -1.6843297473
C            -3.1921700722       -0.1562566917       -1.6799824500
C             0.2653094211       -3.1618630193       -1.7134843163
C             1.6660699301       -2.6991422642       -1.7148471952
C            -2.2377142810        2.1563964926       -1.8476622107
C             0.5117210300        3.0636095087       -1.8496408603
C            -1.8212354062       -1.9634251169       -2.4216516748
C             2.6293477238       -0.4947879829       -2.4249863215
C            -0.4821053573       -2.3531989244       -2.6945992472
C             1.7840384695       -1.6049873874       -2.6967123209
C            -2.2719756151       -0.5966520279       -2.7449413405
C             2.1773958633        0.8715196054       -2.7477864295
C            -1.3510745798        1.7328919389       -2.8742302611
C             0.0494962318        2.1948861080       -2.8748256236
C             0.4558163031       -1.3904813679       -3.3011058529
C            -1.3682625001        0.3301187124       -3.3306716302
C             0.8980684242        1.0779895211       -3.3316040235
C             0.0213689753       -0.0739579253       -3.6136998321